;NAPISATI PROGRAM NA PROGRAMSKOM JEZIKU C, KOJI FORMIRA NIZ OD SVIH NEGATIVNIH ELEMENATA MATRICE. 
;KORISNIK ZADAJE DIMENZIJE I ELEMENTE MATRICE, A REZULTUJUCI NIZ SE PRIKAZUJE NA IZLAZU. 
;NAPRAVITI PROCEDURU KOJA KOPIRA NEGATIVNE ELEMENTE JEDNOG NIZA U DRUGI. NIZOVI SU OZNACENI 16-BITNIH ELEMENTI
;BROJ ELEMENATA 1. NIZA JE ZADAT ULAZNIM PARAMETRIMA, A BROJ ELEMENATA REZULTUJUCEG NIZA JE POVRATNI PARAMETAR.
;---.ASM FAJL---
.586
.model flat, c
.data 
.stack 4096
.code
public copy
copy proc 
push ebp
mov ebp,esp
pushfd
push esi
push edi
push ebx
push ecx
mov ecx,[ebp+16]
mov ebx,[ebp+12]
mov edi,[ebp+8]
mov edx,0
gore:
mov eax,[edi]
cmp ax,0
jl manje
jmp kraj
manje:
mov [ebx],eax
add ebx,2
inc edx
kraj:
add edi,2
loop gore
mov eax,edx
pop ecx
pop ebx
pop edi
pop esi
popfd
pop ebp
ret
copy endp
end

;---.C FAJL ---

#include <stdio.h>
#include <stdlib.h>

extern int copy(short*, short*, int);

void main() {
	int n, m, i, j, dim;
	short* mat, * niz;
	scanf("%d%d", &n, &m);
	mat = (short*)malloc(n * m * sizeof(short));
	niz = (short*)malloc(n * m * sizeof(short));

	for (i = 0; i < n * m; i++) {
		scanf("%hi", &mat[i]);
	}

	dim = copy(mat, niz, n * m);
	for (i = 0; i < dim; i++)
		printf("%hi ", niz[i]);
}
