;---I NACIN---
.386
.model flat,c
.data
niz dd ?
mat dd 1, 2, 3, 10
		dd 4, 5, 6, 11
		dd 7, 8, 9, 12
		dd 13, 14, 15, 16
n dd 4
.stack 4096
.code

max proc

push ebp
mov ebp,esp
pushfd
pushad 
mov ecx,[ebp+12]
dec ecx
mov edi,[ebp+8]
mov eax,[edi]
add edi,4
	gore:
		mov ebx,[edi]
		cmp eax,ebx
		jb petlja
		jmp dole
		petlja:
		mov eax,ebx
		dole:
		add edi,4
	loop gore
mov [ebp+12],eax
popad
popfd
pop ebp

ret 4
max endp

main proc

mov ebx,0
mov edi,0
mov ecx,n
mov edx,n
shl edx,2

	GORE:
		push n
		lea eax,mat[ebx]
		push eax
		call max
		pop niz[edi]
		add ebx,edx
		add edi, type niz
	loop GORE

ret
main endp
end main

;---II NACIN---

.386
.model flat, c
.data
	N dd 4
	mat dd 1, 2, 3, 10
		dd 4, 5, 6, 11
		dd 7, 8, 9, 12
		dd 13, 14, 15, 16
	niz dd 4 dup (?)
.stack 4096
.code
	max proc
		push ebp
		mov ebp, esp
		pushfd
		pushad
		mov edi, [ebp + 12]
		mov eax, [edi]
		add edi, 4
		mov ecx, [ebp + 16]
		dec ecx
		cld
		gore:
			scasd
			jae petlja
			mov eax, [edi - 4]
			petlja:
		loop gore
		mov edi, [ebp + 8]
		stosd
		popad
		popfd
		pop ebp
		ret 12
	max endp

	main proc
		mov edi, 0
		mov ecx, N
		mov eax, ecx
		shl eax, 2
		mov edx, eax
		mov ebx, 0
		gore:
			push N
			lea eax, mat[ebx]
			push eax
			lea eax, niz[edi]
			push eax
			call max
			add ebx, edx
			add edi, 4
		loop gore
		nop
		ret
	main endp
	end main